# generated using pymatgen
data_Si
_symmetry_space_group_name_H-M   'P 1'
_cell_length_a   7.78436998
_cell_length_b   7.78436998
_cell_length_c   7.78436998
_cell_angle_alpha   60.00000000
_cell_angle_beta   60.00000000
_cell_angle_gamma   60.00000000
_symmetry_Int_Tables_number   1
_chemical_formula_structural   Si
_chemical_formula_sum   Si16
_cell_volume   333.54574909
_cell_formula_units_Z   16
loop_
 _symmetry_equiv_pos_site_id
 _symmetry_equiv_pos_as_xyz
  1  'x, y, z'
loop_
 _atom_site_type_symbol
 _atom_site_label
 _atom_site_symmetry_multiplicity
 _atom_site_fract_x
 _atom_site_fract_y
 _atom_site_fract_z
 _atom_site_occupancy
  Si  Si0  1  0.01480783  -0.00014437  -0.00340412  1
  Si  Si1  1  0.13433325  0.10880731  0.13539333  1
  Si  Si2  1  -0.01023601  -0.00134884  0.51219471  1
  Si  Si3  1  0.12651730  0.13339123  0.61437168  1
  Si  Si4  1  -0.00213798  0.50901161  -0.01064125  1
  Si  Si5  1  0.12077818  0.61356118  0.12775520  1
  Si  Si6  1  0.00508966  0.50822885  0.49517474  1
  Si  Si7  1  0.14245839  0.62827777  0.61996787  1
  Si  Si8  1  0.51113779  0.00740607  -0.01464492  1
  Si  Si9  1  0.62245361  0.14358757  0.12886955  1
  Si  Si10  1  0.49570159  -0.00491760  0.49843944  1
  Si  Si11  1  0.61121536  0.13036097  0.61672641  1
  Si  Si12  1  0.48415770  0.50847523  0.00389023  1
  Si  Si13  1  0.61608973  0.61376492  0.13116663  1
  Si  Si14  1  0.50098885  0.49679012  0.51076553  1
  Si  Si15  1  0.62664474  0.60474798  0.63397497  1
