# generated using pymatgen
data_Si
_symmetry_space_group_name_H-M   'P 1'
_cell_length_a   7.79067629
_cell_length_b   7.79067629
_cell_length_c   7.79067629
_cell_angle_alpha   60.00000000
_cell_angle_beta   60.00000000
_cell_angle_gamma   60.00000000
_symmetry_Int_Tables_number   1
_chemical_formula_structural   Si
_chemical_formula_sum   Si16
_cell_volume   334.35704589
_cell_formula_units_Z   16
loop_
 _symmetry_equiv_pos_site_id
 _symmetry_equiv_pos_as_xyz
  1  'x, y, z'
loop_
 _atom_site_type_symbol
 _atom_site_label
 _atom_site_symmetry_multiplicity
 _atom_site_fract_x
 _atom_site_fract_y
 _atom_site_fract_z
 _atom_site_occupancy
  Si  Si0  1  0.00287060  -0.01947012  0.00093342  1
  Si  Si1  1  0.11757388  0.14006074  0.11969334  1
  Si  Si2  1  -0.00038145  -0.00939729  0.51103379  1
  Si  Si3  1  0.13025840  0.12566914  0.61575089  1
  Si  Si4  1  0.01048309  0.50634670  -0.00968289  1
  Si  Si5  1  0.14231616  0.62118161  0.12719302  1
  Si  Si6  1  0.00372052  0.49167540  0.49750822  1
  Si  Si7  1  0.13326672  0.61696986  0.61528422  1
  Si  Si8  1  0.48695558  -0.00754176  0.00356682  1
  Si  Si9  1  0.60931137  0.13311696  0.13238594  1
  Si  Si10  1  0.49174411  0.01301967  0.51131810  1
  Si  Si11  1  0.63825714  0.13001132  0.61508649  1
  Si  Si12  1  0.51267074  0.49869385  -0.01217140  1
  Si  Si13  1  0.61163594  0.61851910  0.14310440  1
  Si  Si14  1  0.49358341  0.51023205  0.49877289  1
  Si  Si15  1  0.61573379  0.63091277  0.63022276  1
